<?xml version="1.0" encoding="UTF-8"?>
<nodes xmlns:xsi="http://www.w3.org/2001/XMLSchema-instance" xsi:noNamespaceSchemaLocation="http://sumo.dlr.de/xsd/nodes_file.xsd">
    <node id="n0_0" x="0.0" y="0.0" type="traffic_light"/>
    <node id="n0_1" x="500.0" y="0.0" type="traffic_light"/>
    <node id="n0_2" x="1000.0" y="0.0" type="traffic_light"/>
    <node id="n0_3" x="1500.0" y="0.0" type="traffic_light"/>
    <node id="n0_4" x="2000.0" y="0.0" type="traffic_light"/>
    <node id="n0_5" x="2500.0" y="0.0" type="traffic_light"/>
    <node id="n1_0" x="0.0" y="500.0" type="traffic_light"/>
    <node id="n1_1" x="500.0" y="500.0" type="traffic_light"/>
    <node id="n1_2" x="1000.0" y="500.0" type="traffic_light"/>
    <node id="n1_3" x="1500.0" y="500.0" type="traffic_light"/>
    <node id="n1_4" x="2000.0" y="500.0" type="traffic_light"/>
    <node id="n1_5" x="2500.0" y="500.0" type="traffic_light"/>
    <node id="n2_0" x="0.0" y="1000.0" type="traffic_light"/>
    <node id="n2_1" x="500.0" y="1000.0" type="traffic_light"/>
    <node id="n2_2" x="1000.0" y="1000.0" type="traffic_light"/>
    <node id="n2_3" x="1500.0" y="1000.0" type="traffic_light"/>
    <node id="n2_4" x="2000.0" y="1000.0" type="traffic_light"/>
    <node id="n2_5" x="2500.0" y="1000.0" type="traffic_light"/>
    <node id="n3_0" x="0.0" y="1500.0" type="traffic_light"/>
    <node id="n3_1" x="500.0" y="1500.0" type="traffic_light"/>
    <node id="n3_2" x="1000.0" y="1500.0" type="traffic_light"/>
    <node id="n3_3" x="1500.0" y="1500.0" type="traffic_light"/>
    <node id="n3_4" x="2000.0" y="1500.0" type="traffic_light"/>
    <node id="n3_5" x="2500.0" y="1500.0" type="traffic_light"/>
    <node id="n4_0" x="0.0" y="2000.0" type="traffic_light"/>
    <node id="n4_1" x="500.0" y="2000.0" type="traffic_light"/>
    <node id="n4_2" x="1000.0" y="2000.0" type="traffic_light"/>
    <node id="n4_3" x="1500.0" y="2000.0" type="traffic_light"/>
    <node id="n4_4" x="2000.0" y="2000.0" type="traffic_light"/>
    <node id="n4_5" x="2500.0" y="2000.0" type="traffic_light"/>
    <node id="n5_0" x="0.0" y="2500.0" type="traffic_light"/>
    <node id="n5_1" x="500.0" y="2500.0" type="traffic_light"/>
    <node id="n5_2" x="1000.0" y="2500.0" type="traffic_light"/>
    <node id="n5_3" x="1500.0" y="2500.0" type="traffic_light"/>
    <node id="n5_4" x="2000.0" y="2500.0" type="traffic_light"/>
    <node id="n5_5" x="2500.0" y="2500.0" type="traffic_light"/>
    <node id="src_south_0" x="0.0" y="-500.0" type="priority"/>
    <node id="src_north_0" x="0.0" y="3000.0" type="priority"/>
    <node id="src_south_1" x="500.0" y="-500.0" type="priority"/>
    <node id="src_north_1" x="500.0" y="3000.0" type="priority"/>
    <node id="src_south_2" x="1000.0" y="-500.0" type="priority"/>
    <node id="src_north_2" x="1000.0" y="3000.0" type="priority"/>
    <node id="src_south_3" x="1500.0" y="-500.0" type="priority"/>
    <node id="src_north_3" x="1500.0" y="3000.0" type="priority"/>
    <node id="src_south_4" x="2000.0" y="-500.0" type="priority"/>
    <node id="src_north_4" x="2000.0" y="3000.0" type="priority"/>
    <node id="src_south_5" x="2500.0" y="-500.0" type="priority"/>
    <node id="src_north_5" x="2500.0" y="3000.0" type="priority"/>
    <node id="src_west_0" x="-500.0" y="0.0" type="priority"/>
    <node id="src_east_0" x="3000.0" y="0.0" type="priority"/>
    <node id="src_west_1" x="-500.0" y="500.0" type="priority"/>
    <node id="src_east_1" x="3000.0" y="500.0" type="priority"/>
    <node id="src_west_2" x="-500.0" y="1000.0" type="priority"/>
    <node id="src_east_2" x="3000.0" y="1000.0" type="priority"/>
    <node id="src_west_3" x="-500.0" y="1500.0" type="priority"/>
    <node id="src_east_3" x="3000.0" y="1500.0" type="priority"/>
    <node id="src_west_4" x="-500.0" y="2000.0" type="priority"/>
    <node id="src_east_4" x="3000.0" y="2000.0" type="priority"/>
    <node id="src_west_5" x="-500.0" y="2500.0" type="priority"/>
    <node id="src_east_5" x="3000.0" y="2500.0" type="priority"/>
</nodes>