<?xml version="1.0" encoding="UTF-8"?>

<!-- generated on 2026-02-11T17:11:49.971072+00:00 by Eclipse SUMO netconvert 1.26.0
<netconvertConfiguration xmlns:xsi="http://www.w3.org/2001/XMLSchema-instance" xsi:noNamespaceSchemaLocation="http://sumo.dlr.de/xsd/netconvertConfiguration.xsd">

    <input>
        <node-files value="D:\traffic_sma_project\sumo_integration\abidjan.nod.xml"/>
        <edge-files value="D:\traffic_sma_project\sumo_integration\abidjan.edg.xml"/>
    </input>

    <output>
        <output-file value="D:\traffic_sma_project\sumo_integration\abidjan.net.xml"/>
        <output.street-names value="true"/>
    </output>

    <tls_building>
        <tls.cycle.time value="60"/>
        <tls.default-type value="static"/>
    </tls_building>

    <junctions>
        <no-turnarounds value="true"/>
    </junctions>

</netconvertConfiguration>
-->

<net version="1.20" junctionCornerDetail="5" limitTurnSpeed="5.50" xmlns:xsi="http://www.w3.org/2001/XMLSchema-instance" xsi:noNamespaceSchemaLocation="http://sumo.dlr.de/xsd/net_file.xsd">

    <location netOffset="500.00,500.00" convBoundary="0.00,0.00,3500.00,3500.00" origBoundary="-500.00,-500.00,3000.00,3000.00" projParameter="!"/>

    <edge id=":n0_0_0" function="internal">
        <lane id=":n0_0_0_0" index="0" speed="6.51" length="9.03" shape="495.20,510.40 494.85,507.95 493.80,506.20 492.05,505.15 489.60,504.80"/>
    </edge>
    <edge id=":n0_0_1" function="internal">
        <lane id=":n0_0_1_0" index="0" speed="13.89" length="20.80" shape="495.20,510.40 495.20,489.60"/>
        <lane id=":n0_0_1_1" index="1" speed="13.89" length="20.80" shape="498.40,510.40 498.40,489.60"/>
    </edge>
    <edge id=":n0_0_3" function="internal">
        <lane id=":n0_0_3_0" index="0" speed="9.26" length="5.01" shape="498.40,510.40 499.11,505.44"/>
    </edge>
    <edge id=":n0_0_16" function="internal">
        <lane id=":n0_0_16_0" index="0" speed="9.26" length="14.34" shape="499.11,505.44 499.15,505.15 501.40,501.40 505.15,499.15 510.40,498.40"/>
    </edge>
    <edge id=":n0_0_4" function="internal">
        <lane id=":n0_0_4_0" index="0" speed="6.51" length="9.03" shape="510.40,504.80 507.95,505.15 506.20,506.20 505.15,507.95 504.80,510.40"/>
    </edge>
    <edge id=":n0_0_5" function="internal">
        <lane id=":n0_0_5_0" index="0" speed="13.89" length="20.80" shape="510.40,504.80 489.60,504.80"/>
        <lane id=":n0_0_5_1" index="1" speed="13.89" length="20.80" shape="510.40,501.60 489.60,501.60"/>
    </edge>
    <edge id=":n0_0_7" function="internal">
        <lane id=":n0_0_7_0" index="0" speed="9.26" length="5.01" shape="510.40,501.60 505.44,500.89"/>
    </edge>
    <edge id=":n0_0_17" function="internal">
        <lane id=":n0_0_17_0" index="0" speed="9.26" length="14.34" shape="505.44,500.89 505.15,500.85 501.40,498.60 499.15,494.85 498.40,489.60"/>
    </edge>
    <edge id=":n0_0_8" function="internal">
        <lane id=":n0_0_8_0" index="0" speed="6.51" length="9.03" shape="504.80,489.60 505.15,492.05 506.20,493.80 507.95,494.85 510.40,495.20"/>
    </edge>
    <edge id=":n0_0_9" function="internal">
        <lane id=":n0_0_9_0" index="0" speed="13.89" length="20.80" shape="504.80,489.60 504.80,510.40"/>
        <lane id=":n0_0_9_1" index="1" speed="13.89" length="20.80" shape="501.60,489.60 501.60,510.40"/>
    </edge>
    <edge id=":n0_0_11" function="internal">
        <lane id=":n0_0_11_0" index="0" speed="9.26" length="5.01" shape="501.60,489.60 500.89,494.56"/>
    </edge>
    <edge id=":n0_0_18" function="internal">
        <lane id=":n0_0_18_0" index="0" speed="9.26" length="14.34" shape="500.89,494.56 500.85,494.85 498.60,498.60 494.85,500.85 489.60,501.60"/>
    </edge>
    <edge id=":n0_0_12" function="internal">
        <lane id=":n0_0_12_0" index="0" speed="6.51" length="9.03" shape="489.60,495.20 492.05,494.85 493.80,493.80 494.85,492.05 495.20,489.60"/>
    </edge>
    <edge id=":n0_0_13" function="internal">
        <lane id=":n0_0_13_0" index="0" speed="13.89" length="20.80" shape="489.60,495.20 510.40,495.20"/>
        <lane id=":n0_0_13_1" index="1" speed="13.89" length="20.80" shape="489.60,498.40 510.40,498.40"/>
    </edge>
    <edge id=":n0_0_15" function="internal">
        <lane id=":n0_0_15_0" index="0" speed="9.26" length="5.01" shape="489.60,498.40 494.56,499.11"/>
    </edge>
    <edge id=":n0_0_19" function="internal">
        <lane id=":n0_0_19_0" index="0" speed="9.26" length="14.34" shape="494.56,499.11 494.85,499.15 498.60,501.40 500.85,505.15 501.60,510.40"/>
    </edge>
    <edge id=":n0_1_0" function="internal">
        <lane id=":n0_1_0_0" index="0" speed="6.51" length="9.03" shape="995.20,510.40 994.85,507.95 993.80,506.20 992.05,505.15 989.60,504.80"/>
    </edge>
    <edge id=":n0_1_1" function="internal">
        <lane id=":n0_1_1_0" index="0" speed="13.89" length="20.80" shape="995.20,510.40 995.20,489.60"/>
        <lane id=":n0_1_1_1" index="1" speed="13.89" length="20.80" shape="998.40,510.40 998.40,489.60"/>
    </edge>
    <edge id=":n0_1_3" function="internal">
        <lane id=":n0_1_3_0" index="0" speed="9.26" length="5.01" shape="998.40,510.40 999.11,505.44"/>
    </edge>
    <edge id=":n0_1_16" function="internal">
        <lane id=":n0_1_16_0" index="0" speed="9.26" length="14.34" shape="999.11,505.44 999.15,505.15 1001.40,501.40 1005.15,499.15 1010.40,498.40"/>
    </edge>
    <edge id=":n0_1_4" function="internal">
        <lane id=":n0_1_4_0" index="0" speed="6.51" length="9.03" shape="1010.40,504.80 1007.95,505.15 1006.20,506.20 1005.15,507.95 1004.80,510.40"/>
    </edge>
    <edge id=":n0_1_5" function="internal">
        <lane id=":n0_1_5_0" index="0" speed="13.89" length="20.80" shape="1010.40,504.80 989.60,504.80"/>
        <lane id=":n0_1_5_1" index="1" speed="13.89" length="20.80" shape="1010.40,501.60 989.60,501.60"/>
    </edge>
    <edge id=":n0_1_7" function="internal">
        <lane id=":n0_1_7_0" index="0" speed="9.26" length="5.01" shape="1010.40,501.60 1005.44,500.89"/>
    </edge>
    <edge id=":n0_1_17" function="internal">
        <lane id=":n0_1_17_0" index="0" speed="9.26" length="14.34" shape="1005.44,500.89 1005.15,500.85 1001.40,498.60 999.15,494.85 998.40,489.60"/>
    </edge>
    <edge id=":n0_1_8" function="internal">
        <lane id=":n0_1_8_0" index="0" speed="6.51" length="9.03" shape="1004.80,489.60 1005.15,492.05 1006.20,493.80 1007.95,494.85 1010.40,495.20"/>
    </edge>
    <edge id=":n0_1_9" function="internal">
        <lane id=":n0_1_9_0" index="0" speed="13.89" length="20.80" shape="1004.80,489.60 1004.80,510.40"/>
        <lane id=":n0_1_9_1" index="1" speed="13.89" length="20.80" shape="1001.60,489.60 1001.60,510.40"/>
    </edge>
    <edge id=":n0_1_11" function="internal">
        <lane id=":n0_1_11_0" index="0" speed="9.26" length="5.01" shape="1001.60,489.60 1000.89,494.56"/>
    </edge>
    <edge id=":n0_1_18" function="internal">
        <lane id=":n0_1_18_0" index="0" speed="9.26" length="14.34" shape="1000.89,494.56 1000.85,494.85 998.60,498.60 994.85,500.85 989.60,501.60"/>
    </edge>
    <edge id=":n0_1_12" function="internal">
        <lane id=":n0_1_12_0" index="0" speed="6.51" length="9.03" shape="989.60,495.20 992.05,494.85 993.80,493.80 994.85,492.05 995.20,489.60"/>
    </edge>
    <edge id=":n0_1_13" function="internal">
        <lane id=":n0_1_13_0" index="0" speed="13.89" length="20.80" shape="989.60,495.20 1010.40,495.20"/>
        <lane id=":n0_1_13_1" index="1" speed="13.89" length="20.80" shape="989.60,498.40 1010.40,498.40"/>
    </edge>
    <edge id=":n0_1_15" function="internal">
        <lane id=":n0_1_15_0" index="0" speed="9.26" length="5.01" shape="989.60,498.40 994.56,499.11"/>
    </edge>
    <edge id=":n0_1_19" function="internal">
        <lane id=":n0_1_19_0" index="0" speed="9.26" length="14.34" shape="994.56,499.11 994.85,499.15 998.60,501.40 1000.85,505.15 1001.60,510.40"/>
    </edge>
    <edge id=":n0_2_0" function="internal">
        <lane id=":n0_2_0_0" index="0" speed="6.51" length="9.03" shape="1495.20,510.40 1494.85,507.95 1493.80,506.20 1492.05,505.15 1489.60,504.80"/>
    </edge>
    <edge id=":n0_2_1" function="internal">
        <lane id=":n0_2_1_0" index="0" speed="13.89" length="20.80" shape="1495.20,510.40 1495.20,489.60"/>
        <lane id=":n0_2_1_1" index="1" speed="13.89" length="20.80" shape="1498.40,510.40 1498.40,489.60"/>
    </edge>
    <edge id=":n0_2_3" function="internal">
        <lane id=":n0_2_3_0" index="0" speed="9.26" length="5.01" shape="1498.40,510.40 1499.11,505.44"/>
    </edge>
    <edge id=":n0_2_16" function="internal">
        <lane id=":n0_2_16_0" index="0" speed="9.26" length="14.34" shape="1499.11,505.44 1499.15,505.15 1501.40,501.40 1505.15,499.15 1510.40,498.40"/>
    </edge>
    <edge id=":n0_2_4" function="internal">
        <lane id=":n0_2_4_0" index="0" speed="6.51" length="9.03" shape="1510.40,504.80 1507.95,505.15 1506.20,506.20 1505.15,507.95 1504.80,510.40"/>
    </edge>
    <edge id=":n0_2_5" function="internal">
        <lane id=":n0_2_5_0" index="0" speed="13.89" length="20.80" shape="1510.40,504.80 1489.60,504.80"/>
        <lane id=":n0_2_5_1" index="1" speed="13.89" length="20.80" shape="1510.40,501.60 1489.60,501.60"/>
    </edge>
    <edge id=":n0_2_7" function="internal">
        <lane id=":n0_2_7_0" index="0" speed="9.26" length="5.01" shape="1510.40,501.60 1505.44,500.89"/>
    </edge>
    <edge id=":n0_2_17" function="internal">
        <lane id=":n0_2_17_0" index="0" speed="9.26" length="14.34" shape="1505.44,500.89 1505.15,500.85 1501.40,498.60 1499.15,494.85 1498.40,489.60"/>
    </edge>
    <edge id=":n0_2_8" function="internal">
        <lane id=":n0_2_8_0" index="0" speed="6.51" length="9.03" shape="1504.80,489.60 1505.15,492.05 1506.20,493.80 1507.95,494.85 1510.40,495.20"/>
    </edge>
    <edge id=":n0_2_9" function="internal">
        <lane id=":n0_2_9_0" index="0" speed="13.89" length="20.80" shape="1504.80,489.60 1504.80,510.40"/>
        <lane id=":n0_2_9_1" index="1" speed="13.89" length="20.80" shape="1501.60,489.60 1501.60,510.40"/>
    </edge>
    <edge id=":n0_2_11" function="internal">
        <lane id=":n0_2_11_0" index="0" speed="9.26" length="5.01" shape="1501.60,489.60 1500.89,494.56"/>
    </edge>
    <edge id=":n0_2_18" function="internal">
        <lane id=":n0_2_18_0" index="0" speed="9.26" length="14.34" shape="1500.89,494.56 1500.85,494.85 1498.60,498.60 1494.85,500.85 1489.60,501.60"/>
    </edge>
    <edge id=":n0_2_12" function="internal">
        <lane id=":n0_2_12_0" index="0" speed="6.51" length="9.03" shape="1489.60,495.20 1492.05,494.85 1493.80,493.80 1494.85,492.05 1495.20,489.60"/>
    </edge>
    <edge id=":n0_2_13" function="internal">
        <lane id=":n0_2_13_0" index="0" speed="13.89" length="20.80" shape="1489.60,495.20 1510.40,495.20"/>
        <lane id=":n0_2_13_1" index="1" speed="13.89" length="20.80" shape="1489.60,498.40 1510.40,498.40"/>
    </edge>
    <edge id=":n0_2_15" function="internal">
        <lane id=":n0_2_15_0" index="0" speed="9.26" length="5.01" shape="1489.60,498.40 1494.56,499.11"/>
    </edge>
    <edge id=":n0_2_19" function="internal">
        <lane id=":n0_2_19_0" index="0" speed="9.26" length="14.34" shape="1494.56,499.11 1494.85,499.15 1498.60,501.40 1500.85,505.15 1501.60,510.40"/>
    </edge>
    <edge id=":n0_3_0" function="internal">
        <lane id=":n0_3_0_0" index="0" speed="6.51" length="9.03" shape="1995.20,510.40 1994.85,507.95 1993.80,506.20 1992.05,505.15 1989.60,504.80"/>
    </edge>
    <edge id=":n0_3_1" function="internal">
        <lane id=":n0_3_1_0" index="0" speed="13.89" length="20.80" shape="1995.20,510.40 1995.20,489.60"/>
        <lane id=":n0_3_1_1" index="1" speed="13.89" length="20.80" shape="1998.40,510.40 1998.40,489.60"/>
    </edge>
    <edge id=":n0_3_3" function="internal">
        <lane id=":n0_3_3_0" index="0" speed="9.26" length="5.01" shape="1998.40,510.40 1999.11,505.44"/>
    </edge>
    <edge id=":n0_3_16" function="internal">
        <lane id=":n0_3_16_0" index="0" speed="9.26" length="14.34" shape="1999.11,505.44 1999.15,505.15 2001.40,501.40 2005.15,499.15 2010.40,498.40"/>
    </edge>
    <edge id=":n0_3_4" function="internal">
        <lane id=":n0_3_4_0" index="0" speed="6.51" length="9.03" shape="2010.40,504.80 2007.95,505.15 2006.20,506.20 2005.15,507.95 2004.80,510.40"/>
    </edge>
    <edge id=":n0_3_5" function="internal">
        <lane id=":n0_3_5_0" index="0" speed="13.89" length="20.80" shape="2010.40,504.80 1989.60,504.80"/>
        <lane id=":n0_3_5_1" index="1" speed="13.89" length="20.80" shape="2010.40,501.60 1989.60,501.60"/>
    </edge>
    <edge id=":n0_3_7" function="internal">
        <lane id=":n0_3_7_0" index="0" speed="9.26" length="5.01" shape="2010.40,501.60 2005.44,500.89"/>
    </edge>
    <edge id=":n0_3_17" function="internal">
        <lane id=":n0_3_17_0" index="0" speed="9.26" length="14.34" shape="2005.44,500.89 2005.15,500.85 2001.40,498.60 1999.15,494.85 1998.40,489.60"/>
    </edge>
    <edge id=":n0_3_8" function="internal">
        <lane id=":n0_3_8_0" index="0" speed="6.51" length="9.03" shape="2004.80,489.60 2005.15,492.05 2006.20,493.80 2007.95,494.85 2010.40,495.20"/>
    </edge>
    <edge id=":n0_3_9" function="internal">
        <lane id=":n0_3_9_0" index="0" speed="13.89" length="20.80" shape="2004.80,489.60 2004.80,510.40"/>
        <lane id=":n0_3_9_1" index="1" speed="13.89" length="20.80" shape="2001.60,489.60 2001.60,510.40"/>
    </edge>
    <edge id=":n0_3_11" function="internal">
        <lane id=":n0_3_11_0" index="0" speed="9.26" length="5.01" shape="2001.60,489.60 2000.89,494.56"/>
    </edge>
    <edge id=":n0_3_18" function="internal">
        <lane id=":n0_3_18_0" index="0" speed="9.26" length="14.34" shape="2000.89,494.56 2000.85,494.85 1998.60,498.60 1994.85,500.85 1989.60,501.60"/>
    </edge>
    <edge id=":n0_3_12" function="internal">
        <lane id=":n0_3_12_0" index="0" speed="6.51" length="9.03" shape="1989.60,495.20 1992.05,494.85 1993.80,493.80 1994.85,492.05 1995.20,489.60"/>
    </edge>
    <edge id=":n0_3_13" function="internal">
        <lane id=":n0_3_13_0" index="0" speed="13.89" length="20.80" shape="1989.60,495.20 2010.40,495.20"/>
        <lane id=":n0_3_13_1" index="1" speed="13.89" length="20.80" shape="1989.60,498.40 2010.40,498.40"/>
    </edge>
    <edge id=":n0_3_15" function="internal">
        <lane id=":n0_3_15_0" index="0" speed="9.26" length="5.01" shape="1989.60,498.40 1994.56,499.11"/>
    </edge>
    <edge id=":n0_3_19" function="internal">
        <lane id=":n0_3_19_0" index="0" speed="9.26" length="14.34" shape="1994.56,499.11 1994.85,499.15 1998.60,501.40 2000.85,505.15 2001.60,510.40"/>
    </edge>
    <edge id=":n0_4_0" function="internal">
        <lane id=":n0_4_0_0" index="0" speed="6.51" length="9.03" shape="2495.20,510.40 2494.85,507.95 2493.80,506.20 2492.05,505.15 2489.60,504.80"/>
    </edge>
    <edge id=":n0_4_1" function="internal">
        <lane id=":n0_4_1_0" index="0" speed="13.89" length="20.80" shape="2495.20,510.40 2495.20,489.60"/>
        <lane id=":n0_4_1_1" index="1" speed="13.89" length="20.80" shape="2498.40,510.40 2498.40,489.60"/>
    </edge>
    <edge id=":n0_4_3" function="internal">
        <lane id=":n0_4_3_0" index="0" speed="9.26" length="5.01" shape="2498.40,510.40 2499.11,505.44"/>
    </edge>
    <edge id=":n0_4_16" function="internal">
        <lane id=":n0_4_16_0" index="0" speed="9.26" length="14.34" shape="2499.11,505.44 2499.15,505.15 2501.40,501.40 2505.15,499.15 2510.40,498.40"/>
    </edge>
    <edge id=":n0_4_4" function="internal">
        <lane id=":n0_4_4_0" index="0" speed="6.51" length="9.03" shape="2510.40,504.80 2507.95,505.15 2506.20,506.20 2505.15,507.95 2504.80,510.40"/>
    </edge>
    <edge id=":n0_4_5" function="internal">
        <lane id=":n0_4_5_0" index="0" speed="13.89" length="20.80" shape="2510.40,504.80 2489.60,504.80"/>
        <lane id=":n0_4_5_1" index="1" speed="13.89" length="20.80" shape="2510.40,501.60 2489.60,501.60"/>
    </edge>
    <edge id=":n0_4_7" function="internal">
        <lane id=":n0_4_7_0" index="0" speed="9.26" length="5.01" shape="2510.40,501.60 2505.44,500.89"/>
    </edge>
    <edge id=":n0_4_17" function="internal">
        <lane id=":n0_4_17_0" index="0" speed="9.26" length="14.34" shape="2505.44,500.89 2505.15,500.85 2501.40,498.60 2499.15,494.85 2498.40,489.60"/>
    </edge>
    <edge id=":n0_4_8" function="internal">
        <lane id=":n0_4_8_0" index="0" speed="6.51" length="9.03" shape="2504.80,489.60 2505.15,492.05 2506.20,493.80 2507.95,494.85 2510.40,495.20"/>
    </edge>
    <edge id=":n0_4_9" function="internal">
        <lane id=":n0_4_9_0" index="0" speed="13.89" length="20.80" shape="2504.80,489.60 2504.80,510.40"/>
        <lane id=":n0_4_9_1" index="1" speed="13.89" length="20.80" shape="2501.60,489.60 2501.60,510.40"/>
    </edge>
    <edge id=":n0_4_11" function="internal">
        <lane id=":n0_4_11_0" index="0" speed="9.26" length="5.01" shape="2501.60,489.60 2500.89,494.56"/>
    </edge>
    <edge id=":n0_4_18" function="internal">
        <lane id=":n0_4_18_0" index="0" speed="9.26" length="14.34" shape="2500.89,494.56 2500.85,494.85 2498.60,498.60 2494.85,500.85 2489.60,501.60"/>
    </edge>
    <edge id=":n0_4_12" function="internal">
        <lane id=":n0_4_12_0" index="0" speed="6.51" length="9.03" shape="2489.60,495.20 2492.05,494.85 2493.80,493.80 2494.85,492.05 2495.20,489.60"/>
    </edge>
    <edge id=":n0_4_13" function="internal">
        <lane id=":n0_4_13_0" index="0" speed="13.89" length="20.80" shape="2489.60,495.20 2510.40,495.20"/>
        <lane id=":n0_4_13_1" index="1" speed="13.89" length="20.80" shape="2489.60,498.40 2510.40,498.40"/>
    </edge>
    <edge id=":n0_4_15" function="internal">
        <lane id=":n0_4_15_0" index="0" speed="9.26" length="5.01" shape="2489.60,498.40 2494.56,499.11"/>
    </edge>
    <edge id=":n0_4_19" function="internal">
        <lane id=":n0_4_19_0" index="0" speed="9.26" length="14.34" shape="2494.56,499.11 2494.85,499.15 2498.60,501.40 2500.85,505.15 2501.60,510.40"/>
    </edge>
    <edge id=":n0_5_0" function="internal">
        <lane id=":n0_5_0_0" index="0" speed="6.51" length="9.03" shape="2995.20,510.40 2994.85,507.95 2993.80,506.20 2992.05,505.15 2989.60,504.80"/>
    </edge>
    <edge id=":n0_5_1" function="internal">
        <lane id=":n0_5_1_0" index="0" speed="13.89" length="20.80" shape="2995.20,510.40 2995.20,489.60"/>
        <lane id=":n0_5_1_1" index="1" speed="13.89" length="20.80" shape="2998.40,510.40 2998.40,489.60"/>
    </edge>
    <edge id=":n0_5_3" function="internal">
        <lane id=":n0_5_3_0" index="0" speed="9.26" length="5.01" shape="2998.40,510.40 2999.11,505.44"/>
    </edge>
    <edge id=":n0_5_16" function="internal">
        <lane id=":n0_5_16_0" index="0" speed="9.26" length="14.34" shape="2999.11,505.44 2999.15,505.15 3001.40,501.40 3005.15,499.15 3010.40,498.40"/>
    </edge>
    <edge id=":n0_5_4" function="internal">
        <lane id=":n0_5_4_0" index="0" speed="6.51" length="9.03" shape="3010.40,504.80 3007.95,505.15 3006.20,506.20 3005.15,507.95 3004.80,510.40"/>
    </edge>
    <edge id=":n0_5_5" function="internal">
        <lane id=":n0_5_5_0" index="0" speed="13.89" length="20.80" shape="3010.40,504.80 2989.60,504.80"/>
        <lane id=":n0_5_5_1" index="1" speed="13.89" length="20.80" shape="3010.40,501.60 2989.60,501.60"/>
    </edge>
    <edge id=":n0_5_7" function="internal">
        <lane id=":n0_5_7_0" index="0" speed="9.26" length="5.01" shape="3010.40,501.60 3005.44,500.89"/>
    </edge>
    <edge id=":n0_5_17" function="internal">
        <lane id=":n0_5_17_0" index="0" speed="9.26" length="14.34" shape="3005.44,500.89 3005.15,500.85 3001.40,498.60 2999.15,494.85 2998.40,489.60"/>
    </edge>
    <edge id=":n0_5_8" function="internal">
        <lane id=":n0_5_8_0" index="0" speed="6.51" length="9.03" shape="3004.80,489.60 3005.15,492.05 3006.20,493.80 3007.95,494.85 3010.40,495.20"/>
    </edge>
    <edge id=":n0_5_9" function="internal">
        <lane id=":n0_5_9_0" index="0" speed="13.89" length="20.80" shape="3004.80,489.60 3004.80,510.40"/>
        <lane id=":n0_5_9_1" index="1" speed="13.89" length="20.80" shape="3001.60,489.60 3001.60,510.40"/>
    </edge>
    <edge id=":n0_5_11" function="internal">
        <lane id=":n0_5_11_0" index="0" speed="9.26" length="5.01" shape="3001.60,489.60 3000.89,494.56"/>
    </edge>
    <edge id=":n0_5_18" function="internal">
        <lane id=":n0_5_18_0" index="0" speed="9.26" length="14.34" shape="3000.89,494.56 3000.85,494.85 2998.60,498.60 2994.85,500.85 2989.60,501.60"/>
    </edge>
    <edge id=":n0_5_12" function="internal">
        <lane id=":n0_5_12_0" index="0" speed="6.51" length="9.03" shape="2989.60,495.20 2992.05,494.85 2993.80,493.80 2994.85,492.05 2995.20,489.60"/>
    </edge>
    <edge id=":n0_5_13" function="internal">
        <lane id=":n0_5_13_0" index="0" speed="13.89" length="20.80" shape="2989.60,495.20 3010.40,495.20"/>
        <lane id=":n0_5_13_1" index="1" speed="13.89" length="20.80" shape="2989.60,498.40 3010.40,498.40"/>
    </edge>
    <edge id=":n0_5_15" function="internal">
        <lane id=":n0_5_15_0" index="0" speed="9.26" length="5.01" shape="2989.60,498.40 2994.56,499.11"/>
    </edge>
    <edge id=":n0_5_19" function="internal">
        <lane id=":n0_5_19_0" index="0" speed="9.26" length="14.34" shape="2994.56,499.11 2994.85,499.15 2998.60,501.40 3000.85,505.15 3001.60,510.40"/>
    </edge>
    <edge id=":n1_0_0" function="internal">
        <lane id=":n1_0_0_0" index="0" speed="6.51" length="9.03" shape="495.20,1010.40 494.85,1007.95 493.80,1006.20 492.05,1005.15 489.60,1004.80"/>
    </edge>
    <edge id=":n1_0_1" function="internal">
        <lane id=":n1_0_1_0" index="0" speed="13.89" length="20.80" shape="495.20,1010.40 495.20,989.60"/>
        <lane id=":n1_0_1_1" index="1" speed="13.89" length="20.80" shape="498.40,1010.40 498.40,989.60"/>
    </edge>
    <edge id=":n1_0_3" function="internal">
        <lane id=":n1_0_3_0" index="0" speed="9.26" length="5.01" shape="498.40,1010.40 499.11,1005.44"/>
    </edge>
    <edge id=":n1_0_16" function="internal">
        <lane id=":n1_0_16_0" index="0" speed="9.26" length="14.34" shape="499.11,1005.44 499.15,1005.15 501.40,1001.40 505.15,999.15 510.40,998.40"/>
    </edge>
    <edge id=":n1_0_4" function="internal">
        <lane id=":n1_0_4_0" index="0" speed="6.51" length="9.03" shape="510.40,1004.80 507.95,1005.15 506.20,1006.20 505.15,1007.95 504.80,1010.40"/>
    </edge>
    <edge id=":n1_0_5" function="internal">
        <lane id=":n1_0_5_0" index="0" speed="13.89" length="20.80" shape="510.40,1004.80 489.60,1004.80"/>
        <lane id=":n1_0_5_1" index="1" speed="13.89" length="20.80" shape="510.40,1001.60 489.60,1001.60"/>
    </edge>
    <edge id=":n1_0_7" function="internal">
        <lane id=":n1_0_7_0" index="0" speed="9.26" length="5.01" shape="510.40,1001.60 505.44,1000.89"/>
    </edge>
    <edge id=":n1_0_17" function="internal">
        <lane id=":n1_0_17_0" index="0" speed="9.26" length="14.34" shape="505.44,1000.89 505.15,1000.85 501.40,998.60 499.15,994.85 498.40,989.60"/>
    </edge>
    <edge id=":n1_0_8" function="internal">
        <lane id=":n1_0_8_0" index="0" speed="6.51" length="9.03" shape="504.80,989.60 505.15,992.05 506.20,993.80 507.95,994.85 510.40,995.20"/>
    </edge>
    <edge id=":n1_0_9" function="internal">
        <lane id=":n1_0_9_0" index="0" speed="13.89" length="20.80" shape="504.80,989.60 504.80,1010.40"/>
        <lane id=":n1_0_9_1" index="1" speed="13.89" length="20.80" shape="501.60,989.60 501.60,1010.40"/>
    </edge>
    <edge id=":n1_0_11" function="internal">
        <lane id=":n1_0_11_0" index="0" speed="9.26" length="5.01" shape="501.60,989.60 500.89,994.56"/>
    </edge>
    <edge id=":n1_0_18" function="internal">
        <lane id=":n1_0_18_0" index="0" speed="9.26" length="14.34" shape="500.89,994.56 500.85,994.85 498.60,998.60 494.85,1000.85 489.60,1001.60"/>
    </edge>
    <edge id=":n1_0_12" function="internal">
        <lane id=":n1_0_12_0" index="0" speed="6.51" length="9.03" shape="489.60,995.20 492.05,994.85 493.80,993.80 494.85,992.05 495.20,989.60"/>
    </edge>
    <edge id=":n1_0_13" function="internal">
        <lane id=":n1_0_13_0" index="0" speed="13.89" length="20.80" shape="489.60,995.20 510.40,995.20"/>
        <lane id=":n1_0_13_1" index="1" speed="13.89" length="20.80" shape="489.60,998.40 510.40,998.40"/>
    </edge>
    <edge id=":n1_0_15" function="internal">
        <lane id=":n1_0_15_0" index="0" speed="9.26" length="5.01" shape="489.60,998.40 494.56,999.11"/>
    </edge>
    <edge id=":n1_0_19" function="internal">
        <lane id=":n1_0_19_0" index="0" speed="9.26" length="14.34" shape="494.56,999.11 494.85,999.15 498.60,1001.40 500.85,1005.15 501.60,1010.40"/>
    </edge>
    <edge id=":n1_1_0" function="internal">
        <lane id=":n1_1_0_0" index="0" speed="6.51" length="9.03" shape="995.20,1010.40 994.85,1007.95 993.80,1006.20 992.05,1005.15 989.60,1004.80"/>
    </edge>
    <edge id=":n1_1_1" function="internal">
        <lane id=":n1_1_1_0" index="0" speed="13.89" length="20.80" shape="995.20,1010.40 995.20,989.60"/>
        <lane id=":n1_1_1_1" index="1" speed="13.89" length="20.80" shape="998.40,1010.40 998.40,989.60"/>
    </edge>
    <edge id=":n1_1_3" function="internal">
        <lane id=":n1_1_3_0" index="0" speed="9.26" length="5.01" shape="998.40,1010.40 999.11,1005.44"/>
    </edge>
    <edge id=":n1_1_16" function="internal">
        <lane id=":n1_1_16_0" index="0" speed="9.26" length="14.34" shape="999.11,1005.44 999.15,1005.15 1001.40,1001.40 1005.15,999.15 1010.40,998.40"/>
    </edge>
    <edge id=":n1_1_4" function="internal">
        <lane id=":n1_1_4_0" index="0" speed="6.51" length="9.03" shape="1010.40,1004.80 1007.95,1005.15 1006.20,1006.20 1005.15,1007.95 1004.80,1010.40"/>
    </edge>
    <edge id=":n1_1_5" function="internal">
        <lane id=":n1_1_5_0" index="0" speed="13.89" length="20.80" shape="1010.40,1004.80 989.60,1004.80"/>
        <lane id=":n1_1_5_1" index="1" speed="13.89" length="20.80" shape="1010.40,1001.60 989.60,1001.60"/>
    </edge>
    <edge id=":n1_1_7" function="internal">
        <lane id=":n1_1_7_0" index="0" speed="9.26" length="5.01" shape="1010.40,1001.60 1005.44,1000.89"/>
    </edge>
    <edge id=":n1_1_17" function="internal">
        <lane id=":n1_1_17_0" index="0" speed="9.26" length="14.34" shape="1005.44,1000.89 1005.15,1000.85 1001.40,998.60 999.15,994.85 998.40,989.60"/>
    </edge>
    <edge id=":n1_1_8" function="internal">
        <lane id=":n1_1_8_0" index="0" speed="6.51" length="9.03" shape="1004.80,989.60 1005.15,992.05 1006.20,993.80 1007.95,994.85 1010.40,995.20"/>
    </edge>
    <edge id=":n1_1_9" function="internal">
        <lane id=":n1_1_9_0" index="0" speed="13.89" length="20.80" shape="1004.80,989.60 1004.80,1010.40"/>
        <lane id=":n1_1_9_1" index="1" speed="13.89" length="20.80" shape="1001.60,989.60 1001.60,1010.40"/>
    </edge>
    <edge id=":n1_1_11" function="internal">
        <lane id=":n1_1_11_0" index="0" speed="9.26" length="5.01" shape="1001.60,989.60 1000.89,994.56"/>
    </edge>
    <edge id=":n1_1_18" function="internal">
        <lane id=":n1_1_18_0" index="0" speed="9.26" length="14.34" shape="1000.89,994.56 1000.85,994.85 998.60,998.60 994.85,1000.85 989.60,1001.60"/>
    </edge>
    <edge id=":n1_1_12" function="internal">
        <lane id=":n1_1_12_0" index="0" speed="6.51" length="9.03" shape="989.60,995.20 992.05,994.85 993.80,993.80 994.85,992.05 995.20,989.60"/>
    </edge>
    <edge id=":n1_1_13" function="internal">
        <lane id=":n1_1_13_0" index="0" speed="13.89" length="20.80" shape="989.60,995.20 1010.40,995.20"/>
        <lane id=":n1_1_13_1" index="1" speed="13.89" length="20.80" shape="989.60,998.40 1010.40,998.40"/>
    </edge>
    <edge id=":n1_1_15" function="internal">
        <lane id=":n1_1_15_0" index="0" speed="9.26" length="5.01" shape="989.60,998.40 994.56,999.11"/>
    </edge>
    <edge id=":n1_1_19" function="internal">
        <lane id=":n1_1_19_0" index="0" speed="9.26" length="14.34" shape="994.56,999.11 994.85,999.15 998.60,1001.40 1000.85,1005.15 1001.60,1010.40"/>
    </edge>
    <edge id=":n1_2_0" function="internal">
        <lane id=":n1_2_0_0" index="0" speed="6.51" length="9.03" shape="1495.20,1010.40 1494.85,1007.95 1493.80,1006.20 1492.05,1005.15 1489.60,1004.80"/>
    </edge>
    <edge id=":n1_2_1" function="internal">
        <lane id=":n1_2_1_0" index="0" speed="13.89" length="20.80" shape="1495.20,1010.40 1495.20,989.60"/>
        <lane id=":n1_2_1_1" index="1" speed="13.89" length="20.80" shape="1498.40,1010.40 1498.40,989.60"/>
    </edge>
    <edge id=":n1_2_3" function="internal">
        <lane id=":n1_2_3_0" index="0" speed="9.26" length="5.01" shape="1498.40,1010.40 1499.11,1005.44"/>
    </edge>
    <edge id=":n1_2_16" function="internal">
        <lane id=":n1_2_16_0" index="0" speed="9.26" length="14.34" shape="1499.11,1005.44 1499.15,1005.15 1501.40,1001.40 1505.15,999.15 1510.40,998.40"/>
    </edge>
    <edge id=":n1_2_4" function="internal">
        <lane id=":n1_2_4_0" index="0" speed="6.51" length="9.03" shape="1510.40,1004.80 1507.95,1005.15 1506.20,1006.20 1505.15,1007.95 1504.80,1010.40"/>
    </edge>
    <edge id=":n1_2_5" function="internal">
        <lane id=":n1_2_5_0" index="0" speed="13.89" length="20.80" shape="1510.40,1004.80 1489.60,1004.80"/>
        <lane id=":n1_2_5_1" index="1" speed="13.89" length="20.80" shape="1510.40,1001.60 1489.60,1001.60"/>
    </edge>
    <edge id=":n1_2_7" function="internal">
        <lane id=":n1_2_7_0" index="0" speed="9.26" length="5.01" shape="1510.40,1001.60 1505.44,1000.89"/>
    </edge>
    <edge id=":n1_2_17" function="internal">