<?xml version="1.0" encoding="UTF-8"?>
<edges xmlns:xsi="http://www.w3.org/2001/XMLSchema-instance" xsi:noNamespaceSchemaLocation="http://sumo.dlr.de/xsd/edges_file.xsd">
    <edge id="e_n0_0_to_n0_1" from="n0_0" to="n0_1" numLanes="2" speed="13.89" name="Bd Lagunaire Est"/>
    <edge id="e_n0_1_to_n0_0" from="n0_1" to="n0_0" numLanes="2" speed="13.89" name="Bd Lagunaire Ouest"/>
    <edge id="e_n0_1_to_n0_2" from="n0_1" to="n0_2" numLanes="2" speed="13.89" name="Bd Lagunaire Est"/>
    <edge id="e_n0_2_to_n0_1" from="n0_2" to="n0_1" numLanes="2" speed="13.89" name="Bd Lagunaire Ouest"/>
    <edge id="e_n0_2_to_n0_3" from="n0_2" to="n0_3" numLanes="2" speed="13.89" name="Bd Lagunaire Est"/>
    <edge id="e_n0_3_to_n0_2" from="n0_3" to="n0_2" numLanes="2" speed="13.89" name="Bd Lagunaire Ouest"/>
    <edge id="e_n0_3_to_n0_4" from="n0_3" to="n0_4" numLanes="2" speed="13.89" name="Bd Lagunaire Est"/>
    <edge id="e_n0_4_to_n0_3" from="n0_4" to="n0_3" numLanes="2" speed="13.89" name="Bd Lagunaire Ouest"/>
    <edge id="e_n0_4_to_n0_5" from="n0_4" to="n0_5" numLanes="2" speed="13.89" name="Bd Lagunaire Est"/>
    <edge id="e_n0_5_to_n0_4" from="n0_5" to="n0_4" numLanes="2" speed="13.89" name="Bd Lagunaire Ouest"/>
    <edge id="e_n1_0_to_n1_1" from="n1_0" to="n1_1" numLanes="2" speed="13.89" name="Rue Commerce Est"/>
    <edge id="e_n1_1_to_n1_0" from="n1_1" to="n1_0" numLanes="2" speed="13.89" name="Rue Commerce Ouest"/>
    <edge id="e_n1_1_to_n1_2" from="n1_1" to="n1_2" numLanes="2" speed="13.89" name="Rue Commerce Est"/>
    <edge id="e_n1_2_to_n1_1" from="n1_2" to="n1_1" numLanes="2" speed="13.89" name="Rue Commerce Ouest"/>
    <edge id="e_n1_2_to_n1_3" from="n1_2" to="n1_3" numLanes="2" speed="13.89" name="Rue Commerce Est"/>
    <edge id="e_n1_3_to_n1_2" from="n1_3" to="n1_2" numLanes="2" speed="13.89" name="Rue Commerce Ouest"/>
    <edge id="e_n1_3_to_n1_4" from="n1_3" to="n1_4" numLanes="2" speed="13.89" name="Rue Commerce Est"/>
    <edge id="e_n1_4_to_n1_3" from="n1_4" to="n1_3" numLanes="2" speed="13.89" name="Rue Commerce Ouest"/>
    <edge id="e_n1_4_to_n1_5" from="n1_4" to="n1_5" numLanes="2" speed="13.89" name="Rue Commerce Est"/>
    <edge id="e_n1_5_to_n1_4" from="n1_5" to="n1_4" numLanes="2" speed="13.89" name="Rue Commerce Ouest"/>
    <edge id="e_n2_0_to_n2_1" from="n2_0" to="n2_1" numLanes="2" speed="13.89" name="Avenue Principale Est"/>
    <edge id="e_n2_1_to_n2_0" from="n2_1" to="n2_0" numLanes="2" speed="13.89" name="Avenue Principale Ouest"/>
    <edge id="e_n2_1_to_n2_2" from="n2_1" to="n2_2" numLanes="2" speed="13.89" name="Avenue Principale Est"/>
    <edge id="e_n2_2_to_n2_1" from="n2_2" to="n2_1" numLanes="2" speed="13.89" name="Avenue Principale Ouest"/>
    <edge id="e_n2_2_to_n2_3" from="n2_2" to="n2_3" numLanes="2" speed="13.89" name="Avenue Principale Est"/>
    <edge id="e_n2_3_to_n2_2" from="n2_3" to="n2_2" numLanes="2" speed="13.89" name="Avenue Principale Ouest"/>
    <edge id="e_n2_3_to_n2_4" from="n2_3" to="n2_4" numLanes="2" speed="13.89" name="Avenue Principale Est"/>
    <edge id="e_n2_4_to_n2_3" from="n2_4" to="n2_3" numLanes="2" speed="13.89" name="Avenue Principale Ouest"/>
    <edge id="e_n2_4_to_n2_5" from="n2_4" to="n2_5" numLanes="2" speed="13.89" name="Avenue Principale Est"/>
    <edge id="e_n2_5_to_n2_4" from="n2_5" to="n2_4" numLanes="2" speed="13.89" name="Avenue Principale Ouest"/>
    <edge id="e_n3_0_to_n3_1" from="n3_0" to="n3_1" numLanes="2" speed="13.89" name="Bd Republique Est"/>
    <edge id="e_n3_1_to_n3_0" from="n3_1" to="n3_0" numLanes="2" speed="13.89" name="Bd Republique Ouest"/>
    <edge id="e_n3_1_to_n3_2" from="n3_1" to="n3_2" numLanes="2" speed="13.89" name="Bd Republique Est"/>
    <edge id="e_n3_2_to_n3_1" from="n3_2" to="n3_1" numLanes="2" speed="13.89" name="Bd Republique Ouest"/>
    <edge id="e_n3_2_to_n3_3" from="n3_2" to="n3_3" numLanes="2" speed="13.89" name="Bd Republique Est"/>
    <edge id="e_n3_3_to_n3_2" from="n3_3" to="n3_2" numLanes="2" speed="13.89" name="Bd Republique Ouest"/>
    <edge id="e_n3_3_to_n3_4" from="n3_3" to="n3_4" numLanes="2" speed="13.89" name="Bd Republique Est"/>
    <edge id="e_n3_4_to_n3_3" from="n3_4" to="n3_3" numLanes="2" speed="13.89" name="Bd Republique Ouest"/>
    <edge id="e_n3_4_to_n3_5" from="n3_4" to="n3_5" numLanes="2" speed="13.89" name="Bd Republique Est"/>
    <edge id="e_n3_5_to_n3_4" from="n3_5" to="n3_4" numLanes="2" speed="13.89" name="Bd Republique Ouest"/>
    <edge id="e_n4_0_to_n4_1" from="n4_0" to="n4_1" numLanes="2" speed="13.89" name="Rue Universite Est"/>
    <edge id="e_n4_1_to_n4_0" from="n4_1" to="n4_0" numLanes="2" speed="13.89" name="Rue Universite Ouest"/>
    <edge id="e_n4_1_to_n4_2" from="n4_1" to="n4_2" numLanes="2" speed="13.89" name="Rue Universite Est"/>
    <edge id="e_n4_2_to_n4_1" from="n4_2" to="n4_1" numLanes="2" speed="13.89" name="Rue Universite Ouest"/>
    <edge id="e_n4_2_to_n4_3" from="n4_2" to="n4_3" numLanes="2" speed="13.89" name="Rue Universite Est"/>
    <edge id="e_n4_3_to_n4_2" from="n4_3" to="n4_2" numLanes="2" speed="13.89" name="Rue Universite Ouest"/>
    <edge id="e_n4_3_to_n4_4" from="n4_3" to="n4_4" numLanes="2" speed="13.89" name="Rue Universite Est"/>
    <edge id="e_n4_4_to_n4_3" from="n4_4" to="n4_3" numLanes="2" speed="13.89" name="Rue Universite Ouest"/>
    <edge id="e_n4_4_to_n4_5" from="n4_4" to="n4_5" numLanes="2" speed="13.89" name="Rue Universite Est"/>
    <edge id="e_n4_5_to_n4_4" from="n4_5" to="n4_4" numLanes="2" speed="13.89" name="Rue Universite Ouest"/>
    <edge id="e_n5_0_to_n5_1" from="n5_0" to="n5_1" numLanes="2" speed="13.89" name="Bd Nord Est"/>
    <edge id="e_n5_1_to_n5_0" from="n5_1" to="n5_0" numLanes="2" speed="13.89" name="Bd Nord Ouest"/>
    <edge id="e_n5_1_to_n5_2" from="n5_1" to="n5_2" numLanes="2" speed="13.89" name="Bd Nord Est"/>
    <edge id="e_n5_2_to_n5_1" from="n5_2" to="n5_1" numLanes="2" speed="13.89" name="Bd Nord Ouest"/>
    <edge id="e_n5_2_to_n5_3" from="n5_2" to="n5_3" numLanes="2" speed="13.89" name="Bd Nord Est"/>
    <edge id="e_n5_3_to_n5_2" from="n5_3" to="n5_2" numLanes="2" speed="13.89" name="Bd Nord Ouest"/>
    <edge id="e_n5_3_to_n5_4" from="n5_3" to="n5_4" numLanes="2" speed="13.89" name="Bd Nord Est"/>
    <edge id="e_n5_4_to_n5_3" from="n5_4" to="n5_3" numLanes="2" speed="13.89" name="Bd Nord Ouest"/>
    <edge id="e_n5_4_to_n5_5" from="n5_4" to="n5_5" numLanes="2" speed="13.89" name="Bd Nord Est"/>
    <edge id="e_n5_5_to_n5_4" from="n5_5" to="n5_4" numLanes="2" speed="13.89" name="Bd Nord Ouest"/>
    <edge id="e_n0_0_to_n1_0" from="n0_0" to="n1_0" numLanes="2" speed="13.89" name="Rue Yopougon Nord"/>
    <edge id="e_n1_0_to_n0_0" from="n1_0" to="n0_0" numLanes="2" speed="13.89" name="Rue Yopougon Sud"/>
    <edge id="e_n0_1_to_n1_1" from="n0_1" to="n1_1" numLanes="2" speed="13.89" name="Rue Adjame Nord"/>
    <edge id="e_n1_1_to_n0_1" from="n1_1" to="n0_1" numLanes="2" speed="13.89" name="Rue Adjame Sud"/>
    <edge id="e_n0_2_to_n1_2" from="n0_2" to="n1_2" numLanes="2" speed="13.89" name="Pont De Gaulle Nord"/>
    <edge id="e_n1_2_to_n0_2" from="n1_2" to="n0_2" numLanes="2" speed="13.89" name="Pont De Gaulle Sud"/>
    <edge id="e_n0_3_to_n1_3" from="n0_3" to="n1_3" numLanes="2" speed="13.89" name="Pont HKB Nord"/>
    <edge id="e_n1_3_to_n0_3" from="n1_3" to="n0_3" numLanes="2" speed="13.89" name="Pont HKB Sud"/>
    <edge id="e_n0_4_to_n1_4" from="n0_4" to="n1_4" numLanes="2" speed="13.89" name="Rue Cocody Nord"/>
    <edge id="e_n1_4_to_n0_4" from="n1_4" to="n0_4" numLanes="2" speed="13.89" name="Rue Cocody Sud"/>
    <edge id="e_n0_5_to_n1_5" from="n0_5" to="n1_5" numLanes="2" speed="13.89" name="Rue Bingerville Nord"/>
    <edge id="e_n1_5_to_n0_5" from="n1_5" to="n0_5" numLanes="2" speed="13.89" name="Rue Bingerville Sud"/>
    <edge id="e_n1_0_to_n2_0" from="n1_0" to="n2_0" numLanes="2" speed="13.89" name="Rue Yopougon Nord"/>
    <edge id="e_n2_0_to_n1_0" from="n2_0" to="n1_0" numLanes="2" speed="13.89" name="Rue Yopougon Sud"/>
    <edge id="e_n1_1_to_n2_1" from="n1_1" to="n2_1" numLanes="2" speed="13.89" name="Rue Adjame Nord"/>
    <edge id="e_n2_1_to_n1_1" from="n2_1" to="n1_1" numLanes="2" speed="13.89" name="Rue Adjame Sud"/>
    <edge id="e_n1_2_to_n2_2" from="n1_2" to="n2_2" numLanes="2" speed="13.89" name="Pont De Gaulle Nord"/>
    <edge id="e_n2_2_to_n1_2" from="n2_2" to="n1_2" numLanes="2" speed="13.89" name="Pont De Gaulle Sud"/>
    <edge id="e_n1_3_to_n2_3" from="n1_3" to="n2_3" numLanes="2" speed="13.89" name="Pont HKB Nord"/>
    <edge id="e_n2_3_to_n1_3" from="n2_3" to="n1_3" numLanes="2" speed="13.89" name="Pont HKB Sud"/>
    <edge id="e_n1_4_to_n2_4" from="n1_4" to="n2_4" numLanes="2" speed="13.89" name="Rue Cocody Nord"/>
    <edge id="e_n2_4_to_n1_4" from="n2_4" to="n1_4" numLanes="2" speed="13.89" name="Rue Cocody Sud"/>
    <edge id="e_n1_5_to_n2_5" from="n1_5" to="n2_5" numLanes="2" speed="13.89" name="Rue Bingerville Nord"/>
    <edge id="e_n2_5_to_n1_5" from="n2_5" to="n1_5" numLanes="2" speed="13.89" name="Rue Bingerville Sud"/>
    <edge id="e_n2_0_to_n3_0" from="n2_0" to="n3_0" numLanes="2" speed="13.89" name="Rue Yopougon Nord"/>
    <edge id="e_n3_0_to_n2_0" from="n3_0" to="n2_0" numLanes="2" speed="13.89" name="Rue Yopougon Sud"/>
    <edge id="e_n2_1_to_n3_1" from="n2_1" to="n3_1" numLanes="2" speed="13.89" name="Rue Adjame Nord"/>
    <edge id="e_n3_1_to_n2_1" from="n3_1" to="n2_1" numLanes="2" speed="13.89" name="Rue Adjame Sud"/>
    <edge id="e_n2_2_to_n3_2" from="n2_2" to="n3_2" numLanes="2" speed="13.89" name="Pont De Gaulle Nord"/>
    <edge id="e_n3_2_to_n2_2" from="n3_2" to="n2_2" numLanes="2" speed="13.89" name="Pont De Gaulle Sud"/>
    <edge id="e_n2_3_to_n3_3" from="n2_3" to="n3_3" numLanes="2" speed="13.89" name="Pont HKB Nord"/>
    <edge id="e_n3_3_to_n2_3" from="n3_3" to="n2_3" numLanes="2" speed="13.89" name="Pont HKB Sud"/>
    <edge id="e_n2_4_to_n3_4" from="n2_4" to="n3_4" numLanes="2" speed="13.89" name="Rue Cocody Nord"/>
    <edge id="e_n3_4_to_n2_4" from="n3_4" to="n2_4" numLanes="2" speed="13.89" name="Rue Cocody Sud"/>
    <edge id="e_n2_5_to_n3_5" from="n2_5" to="n3_5" numLanes="2" speed="13.89" name="Rue Bingerville Nord"/>
    <edge id="e_n3_5_to_n2_5" from="n3_5" to="n2_5" numLanes="2" speed="13.89" name="Rue Bingerville Sud"/>
    <edge id="e_n3_0_to_n4_0" from="n3_0" to="n4_0" numLanes="2" speed="13.89" name="Rue Yopougon Nord"/>
    <edge id="e_n4_0_to_n3_0" from="n4_0" to="n3_0" numLanes="2" speed="13.89" name="Rue Yopougon Sud"/>
    <edge id="e_n3_1_to_n4_1" from="n3_1" to="n4_1" numLanes="2" speed="13.89" name="Rue Adjame Nord"/>
    <edge id="e_n4_1_to_n3_1" from="n4_1" to="n3_1" numLanes="2" speed="13.89" name="Rue Adjame Sud"/>
    <edge id="e_n3_2_to_n4_2" from="n3_2" to="n4_2" numLanes="2" speed="13.89" name="Pont De Gaulle Nord"/>
    <edge id="e_n4_2_to_n3_2" from="n4_2" to="n3_2" numLanes="2" speed="13.89" name="Pont De Gaulle Sud"/>
    <edge id="e_n3_3_to_n4_3" from="n3_3" to="n4_3" numLanes="2" speed="13.89" name="Pont HKB Nord"/>
    <edge id="e_n4_3_to_n3_3" from="n4_3" to="n3_3" numLanes="2" speed="13.89" name="Pont HKB Sud"/>
    <edge id="e_n3_4_to_n4_4" from="n3_4" to="n4_4" numLanes="2" speed="13.89" name="Rue Cocody Nord"/>
    <edge id="e_n4_4_to_n3_4" from="n4_4" to="n3_4" numLanes="2" speed="13.89" name="Rue Cocody Sud"/>
    <edge id="e_n3_5_to_n4_5" from="n3_5" to="n4_5" numLanes="2" speed="13.89" name="Rue Bingerville Nord"/>
    <edge id="e_n4_5_to_n3_5" from="n4_5" to="n3_5" numLanes="2" speed="13.89" name="Rue Bingerville Sud"/>
    <edge id="e_n4_0_to_n5_0" from="n4_0" to="n5_0" numLanes="2" speed="13.89" name="Rue Yopougon Nord"/>
    <edge id="e_n5_0_to_n4_0" from="n5_0" to="n4_0" numLanes="2" speed="13.89" name="Rue Yopougon Sud"/>
    <edge id="e_n4_1_to_n5_1" from="n4_1" to="n5_1" numLanes="2" speed="13.89" name="Rue Adjame Nord"/>
    <edge id="e_n5_1_to_n4_1" from="n5_1" to="n4_1" numLanes="2" speed="13.89" name="Rue Adjame Sud"/>
    <edge id="e_n4_2_to_n5_2" from="n4_2" to="n5_2" numLanes="2" speed="13.89" name="Pont De Gaulle Nord"/>
    <edge id="e_n5_2_to_n4_2" from="n5_2" to="n4_2" numLanes="2" speed="13.89" name="Pont De Gaulle Sud"/>
    <edge id="e_n4_3_to_n5_3" from="n4_3" to="n5_3" numLanes="2" speed="13.89" name="Pont HKB Nord"/>
    <edge id="e_n5_3_to_n4_3" from="n5_3" to="n4_3" numLanes="2" speed="13.89" name="Pont HKB Sud"/>
    <edge id="e_n4_4_to_n5_4" from="n4_4" to="n5_4" numLanes="2" speed="13.89" name="Rue Cocody Nord"/>
    <edge id="e_n5_4_to_n4_4" from="n5_4" to="n4_4" numLanes="2" speed="13.89" name="Rue Cocody Sud"/>
    <edge id="e_n4_5_to_n5_5" from="n4_5" to="n5_5" numLanes="2" speed="13.89" name="Rue Bingerville Nord"/>
    <edge id="e_n5_5_to_n4_5" from="n5_5" to="n4_5" numLanes="2" speed="13.89" name="Rue Bingerville Sud"/>
    <edge id="e_src_south_0_to_n0_0" from="src_south_0" to="n0_0" numLanes="2" speed="13.89" name="Acces Sud 0"/>
    <edge id="e_n0_0_to_src_south_0" from="n0_0" to="src_south_0" numLanes="2" speed="13.89" name="Sortie Sud 0"/>
    <edge id="e_src_south_1_to_n0_1" from="src_south_1" to="n0_1" numLanes="2" speed="13.89" name="Acces Sud 1"/>
    <edge id="e_n0_1_to_src_south_1" from="n0_1" to="src_south_1" numLanes="2" speed="13.89" name="Sortie Sud 1"/>
    <edge id="e_src_south_2_to_n0_2" from="src_south_2" to="n0_2" numLanes="2" speed="13.89" name="Acces Sud 2"/>
    <edge id="e_n0_2_to_src_south_2" from="n0_2" to="src_south_2" numLanes="2" speed="13.89" name="Sortie Sud 2"/>
    <edge id="e_src_south_3_to_n0_3" from="src_south_3" to="n0_3" numLanes="2" speed="13.89" name="Acces Sud 3"/>
    <edge id="e_n0_3_to_src_south_3" from="n0_3" to="src_south_3" numLanes="2" speed="13.89" name="Sortie Sud 3"/>
    <edge id="e_src_south_4_to_n0_4" from="src_south_4" to="n0_4" numLanes="2" speed="13.89" name="Acces Sud 4"/>
    <edge id="e_n0_4_to_src_south_4" from="n0_4" to="src_south_4" numLanes="2" speed="13.89" name="Sortie Sud 4"/>
    <edge id="e_src_south_5_to_n0_5" from="src_south_5" to="n0_5" numLanes="2" speed="13.89" name="Acces Sud 5"/>
    <edge id="e_n0_5_to_src_south_5" from="n0_5" to="src_south_5" numLanes="2" speed="13.89" name="Sortie Sud 5"/>
    <edge id="e_src_north_0_to_n5_0" from="src_north_0" to="n5_0" numLanes="2" speed="13.89" name="Acces Nord 0"/>
    <edge id="e_n5_0_to_src_north_0" from="n5_0" to="src_north_0" numLanes="2" speed="13.89" name="Sortie Nord 0"/>
    <edge id="e_src_north_1_to_n5_1" from="src_north_1" to="n5_1" numLanes="2" speed="13.89" name="Acces Nord 1"/>
    <edge id="e_n5_1_to_src_north_1" from="n5_1" to="src_north_1" numLanes="2" speed="13.89" name="Sortie Nord 1"/>
    <edge id="e_src_north_2_to_n5_2" from="src_north_2" to="n5_2" numLanes="2" speed="13.89" name="Acces Nord 2"/>
    <edge id="e_n5_2_to_src_north_2" from="n5_2" to="src_north_2" numLanes="2" speed="13.89" name="Sortie Nord 2"/>
    <edge id="e_src_north_3_to_n5_3" from="src_north_3" to="n5_3" numLanes="2" speed="13.89" name="Acces Nord 3"/>
    <edge id="e_n5_3_to_src_north_3" from="n5_3" to="src_north_3" numLanes="2" speed="13.89" name="Sortie Nord 3"/>
    <edge id="e_src_north_4_to_n5_4" from="src_north_4" to="n5_4" numLanes="2" speed="13.89" name="Acces Nord 4"/>
    <edge id="e_n5_4_to_src_north_4" from="n5_4" to="src_north_4" numLanes="2" speed="13.89" name="Sortie Nord 4"/>
    <edge id="e_src_north_5_to_n5_5" from="src_north_5" to="n5_5" numLanes="2" speed="13.89" name="Acces Nord 5"/>
    <edge id="e_n5_5_to_src_north_5" from="n5_5" to="src_north_5" numLanes="2" speed="13.89" name="Sortie Nord 5"/>
    <edge id="e_src_west_0_to_n0_0" from="src_west_0" to="n0_0" numLanes="2" speed="13.89" name="Acces Ouest 0"/>
    <edge id="e_n0_0_to_src_west_0" from="n0_0" to="src_west_0" numLanes="2" speed="13.89" name="Sortie Ouest 0"/>
    <edge id="e_src_west_1_to_n1_0" from="src_west_1" to="n1_0" numLanes="2" speed="13.89" name="Acces Ouest 1"/>
    <edge id="e_n1_0_to_src_west_1" from="n1_0" to="src_west_1" numLanes="2" speed="13.89" name="Sortie Ouest 1"/>
    <edge id="e_src_west_2_to_n2_0" from="src_west_2" to="n2_0" numLanes="2" speed="13.89" name="Acces Ouest 2"/>
    <edge id="e_n2_0_to_src_west_2" from="n2_0" to="src_west_2" numLanes="2" speed="13.89" name="Sortie Ouest 2"/>
    <edge id="e_src_west_3_to_n3_0" from="src_west_3" to="n3_0" numLanes="2" speed="13.89" name="Acces Ouest 3"/>
    <edge id="e_n3_0_to_src_west_3" from="n3_0" to="src_west_3" numLanes="2" speed="13.89" name="Sortie Ouest 3"/>
    <edge id="e_src_west_4_to_n4_0" from="src_west_4" to="n4_0" numLanes="2" speed="13.89" name="Acces Ouest 4"/>
    <edge id="e_n4_0_to_src_west_4" from="n4_0" to="src_west_4" numLanes="2" speed="13.89" name="Sortie Ouest 4"/>
    <edge id="e_src_west_5_to_n5_0" from="src_west_5" to="n5_0" numLanes="2" speed="13.89" name="Acces Ouest 5"/>
    <edge id="e_n5_0_to_src_west_5" from="n5_0" to="src_west_5" numLanes="2" speed="13.89" name="Sortie Ouest 5"/>
    <edge id="e_src_east_0_to_n0_5" from="src_east_0" to="n0_5" numLanes="2" speed="13.89" name="Acces Est 0"/>
    <edge id="e_n0_5_to_src_east_0" from="n0_5" to="src_east_0" numLanes="2" speed="13.89" name="Sortie Est 0"/>
    <edge id="e_src_east_1_to_n1_5" from="src_east_1" to="n1_5" numLanes="2" speed="13.89" name="Acces Est 1"/>
    <edge id="e_n1_5_to_src_east_1" from="n1_5" to="src_east_1" numLanes="2" speed="13.89" name="Sortie Est 1"/>
    <edge id="e_src_east_2_to_n2_5" from="src_east_2" to="n2_5" numLanes="2" speed="13.89" name="Acces Est 2"/>
    <edge id="e_n2_5_to_src_east_2" from="n2_5" to="src_east_2" numLanes="2" speed="13.89" name="Sortie Est 2"/>
    <edge id="e_src_east_3_to_n3_5" from="src_east_3" to="n3_5" numLanes="2" speed="13.89" name="Acces Est 3"/>
    <edge id="e_n3_5_to_src_east_3" from="n3_5" to="src_east_3" numLanes="2" speed="13.89" name="Sortie Est 3"/>
    <edge id="e_src_east_4_to_n4_5" from="src_east_4" to="n4_5" numLanes="2" speed="13.89" name="Acces Est 4"/>
    <edge id="e_n4_5_to_src_east_4" from="n4_5" to="src_east_4" numLanes="2" speed="13.89" name="Sortie Est 4"/>
    <edge id="e_src_east_5_to_n5_5" from="src_east_5" to="n5_5" numLanes="2" speed="13.89" name="Acces Est 5"/>
    <edge id="e_n5_5_to_src_east_5" from="n5_5" to="src_east_5" numLanes="2" speed="13.89" name="Sortie Est 5"/>
</edges>